Version 4
SHEET 1 1280 2032
WIRE -1728 -368 -1856 -368
WIRE -1504 -368 -1648 -368
WIRE -1504 -240 -1504 -368
WIRE -1504 -240 -1664 -240
WIRE -1504 -224 -1504 -240
WIRE -1856 -144 -1856 -368
WIRE -1664 -128 -1664 -240
WIRE -1648 -128 -1664 -128
WIRE -1504 -112 -1504 -144
WIRE -1504 -112 -1584 -112
WIRE -1248 -112 -1248 -128
WIRE -1248 -112 -1296 -112
WIRE -1648 -96 -1664 -96
WIRE -1248 -96 -1248 -112
WIRE -1504 -64 -1504 -112
WIRE -1664 32 -1664 -96
WIRE -1504 32 -1504 16
WIRE -1504 32 -1664 32
WIRE -1504 48 -1504 32
WIRE -1856 224 -1856 -64
WIRE -1504 224 -1504 128
WIRE -1504 224 -1856 224
WIRE -1504 272 -1504 224
FLAG -1248 -16 -Vb
FLAG -1248 -208 +Vb
FLAG -1296 -112 0
FLAG -1616 -144 -Vb
FLAG -1616 -80 +Vb
FLAG -1504 272 0
SYMBOL voltage -1248 -224 R0
WINDOW 123 0 0 Left 2
WINDOW 39 24 124 Left 2
SYMATTR InstName V3
SYMATTR Value 4.5
SYMBOL voltage -1248 -112 R0
WINDOW 123 0 0 Left 2
WINDOW 39 24 124 Left 2
SYMATTR InstName V4
SYMATTR Value 4.5
SYMBOL Opamps\\opamp2 -1616 -48 M180
SYMATTR InstName U1
SYMATTR Value TL082
SYMBOL res -1520 -240 R0
SYMATTR InstName R1
SYMATTR Value 22k
SYMATTR SpiceLine tol=5 pwr=1
SYMBOL res -1520 -80 R0
SYMATTR InstName R2
SYMATTR Value 22k
SYMATTR SpiceLine tol=5 pwr=1
SYMBOL res -1520 32 R0
WINDOW 0 81 36 Left 2
WINDOW 3 75 64 Left 2
SYMATTR InstName R3
SYMATTR Value 220k
SYMATTR SpiceLine tol=5 pwr=1
SYMBOL voltage -1856 -160 R0
WINDOW 123 0 0 Left 2
WINDOW 39 24 124 Left 2
SYMATTR InstName V1
SYMATTR Value {V}
SYMBOL res -1632 -384 R90
WINDOW 0 0 56 VBottom 2
WINDOW 3 32 56 VTop 2
SYMATTR InstName R4
SYMATTR Value 1
TEXT -544 -792 Left 3 !* TL082 OPERATIONAL AMPLIFIER "MACROMODEL" SUBCIRCUIT\n* CREATED USING PARTS RELEASE 4.01 ON 06/16/89 AT 13:08\n* (REV N/A)      SUPPLY VOLTAGE: +/-15V\n* ------------------------------------------------------------------------\n*|(C) Copyright Texas Instruments Incorporated 2007. All rights reserved. |\n*|                                                                        |\n*|This Model is designed as an aid for customers of Texas Instruments.    |\n*|No warranties, either expressed or implied, with respect to this Model  |\n*|or its fitness for a particular purpose is claimed by Texas Instruments |\n*|or the author.  The Model is licensed solely on an "as is" basis.  The  |\n*|entire risk as to its quality and performance is with the customer.     |\n* ------------------------------------------------------------------------\n* CONNECTIONS:   NON-INVERTING INPUT\n*                | INVERTING INPUT\n*                | | POSITIVE POWER SUPPLY\n*                | | | NEGATIVE POWER SUPPLY\n*                | | | | OUTPUT\n*                | | | | |\n.SUBCKT TL082    1 2 3 4 5\n*\n  C1   11 12 3.498E-12\n  C2    6  7 15.00E-12\n  DC    5 53 DX\n  DE   54  5 DX\n  DLP  90 91 DX\n  DLN  92 90 DX\n  DP    4  3 DX\n  EGND 99  0 POLY(2) (3,0) (4,0) 0 .5 .5\n  FB    7 99 POLY(5) VB VC VE VLP VLN 0 4.715E6 -5E6 5E6 5E6 -5E6\n  GA    6  0 11 12 282.8E-6\n  GCM   0  6 10 99 8.942E-9\n  ISS   3 10 DC 195.0E-6\n  HLIM 90  0 VLIM 1K\n  J1   11  2 10 JX\n  J2   12  1 10 JX\n  R2    6  9 100.0E3\n  RD1   4 11 3.536E3\n  RD2   4 12 3.536E3\n  RO1   8  5 150\n  RO2   7 99 150\n  RP    3  4 2.143E3\n  RSS  10 99 1.026E6\n  VB    9  0 DC 0\n  VC    3 53 DC 2.200\n  VE   54  4 DC 2.200\n  VLIM  7  8 DC 0\n  VLP  91  0 DC 25\n  VLN   0 92 DC 25\n.MODEL DX D(IS=800.0E-18)\n.MODEL JX PJF(IS=15.00E-12 BETA=270.1E-6 VTO=-1)\n.ENDS
TEXT -1328 120 Left 2 !.step param V -4.5 4.5 100m
TEXT -1328 144 Left 2 !.op
